64

C    0.00   0.00   0.00
C    5.90   0.00   0.00
C   11.80   0.00   0.00
C   17.70   0.00   0.00
C   23.60   0.00   0.00
C   29.50   0.00   0.00
C   35.40   0.00   0.00
C   41.30   0.00   0.00
C   47.20   0.00   0.00
C   53.10   0.00   0.00
C   59.00   0.00   0.00
C   64.90   0.00   0.00
C   70.80   0.00   0.00
C   76.70   0.00   0.00
C   82.60   0.00   0.00
C   88.50   0.00   0.00
C   94.40   0.00   0.00
C   100.30   0.00   0.00
C   106.20   0.00   0.00
C   112.10   0.00   0.00
C   118.00   0.00   0.00
C   123.90   0.00   0.00
C   129.80   0.00   0.00
C   135.70   0.00   0.00
C   141.60   0.00   0.00
C   147.50   0.00   0.00
C   153.40   0.00   0.00
C   159.30   0.00   0.00
C   165.20   0.00   0.00
C   171.10   0.00   0.00
C   177.00   0.00   0.00
C   182.90   0.00   0.00
C   188.80   0.00   0.00
C   194.70   0.00   0.00
C   200.60   0.00   0.00
C   206.50   0.00   0.00
C   212.40   0.00   0.00
C   218.30   0.00   0.00
C   224.20   0.00   0.00
C   230.10   0.00   0.00
C   236.00   0.00   0.00
C   241.90   0.00   0.00
C   247.80   0.00   0.00
C   253.70   0.00   0.00
C   259.60   0.00   0.00
C   265.50   0.00   0.00
C   271.40   0.00   0.00
C   277.30   0.00   0.00
C   283.20   0.00   0.00
C   289.10   0.00   0.00
C   295.00   0.00   0.00
C   300.90   0.00   0.00
C   306.80   0.00   0.00
C   312.70   0.00   0.00
C   318.60   0.00   0.00
C   324.50   0.00   0.00
C   330.40   0.00   0.00
C   336.30   0.00   0.00
C   342.20   0.00   0.00
C   348.10   0.00   0.00
C   354.00   0.00   0.00
C   359.90   0.00   0.00
C   365.80   0.00   0.00
C   371.70   0.00   0.00
